#======================================================================

# CRYSTAL DATA

#----------------------------------------------------------------------

data_VESTA_phase_1


_pd_phase_name                         'COF1M-PBEsol                          '
_cell_length_a                         22.41020
_cell_length_b                         22.41020
_cell_length_c                         3.49050
_cell_angle_alpha                      90
_cell_angle_beta                       90
_cell_angle_gamma                      120
_symmetry_space_group_name_H-M         'P 1'
_symmetry_Int_Tables_number            1

loop_
_symmetry_equiv_pos_as_xyz
   'x, y, z'

loop_
   _atom_site_label
   _atom_site_occupancy
   _atom_site_fract_x
   _atom_site_fract_y
   _atom_site_fract_z
   _atom_site_adp_type
   _atom_site_B_iso_or_equiv
   _atom_site_type_symbol
   O1         1.0     0.594580      0.297290      0.000000     Biso  1.000000 O
   O2         1.0     0.405420      0.702710      0.000000     Biso  1.000000 O
   O3         1.0     0.702710      0.297290      0.000000     Biso  1.000000 O
   O4         1.0     0.297290      0.702710      0.000000     Biso  1.000000 O
   O5         1.0     0.702710      0.405420      0.000000     Biso  1.000000 O
   O6         1.0     0.297290      0.594580      0.000000     Biso  1.000000 O
   C1         1.0     0.592320      0.407690      0.000000     Biso  1.000000 C
   C2         1.0     0.407680      0.592310      0.000000     Biso  1.000000 C
   C3         1.0     0.592310      0.184630      0.000000     Biso  1.000000 C
   C4         1.0     0.407690      0.815370      0.000000     Biso  1.000000 C
   C5         1.0     0.815370      0.407680      0.000000     Biso  1.000000 C
   C6         1.0     0.184630      0.592320      0.000000     Biso  1.000000 C
   C7         1.0     0.483650      0.408260      0.000000     Biso  1.000000 C
   C8         1.0     0.516350      0.591740      0.000000     Biso  1.000000 C
   C9         1.0     0.591740      0.075390      0.000000     Biso  1.000000 C
   C10        1.0     0.408260      0.924610      0.000000     Biso  1.000000 C
   C11        1.0     0.924610      0.516350      0.000000     Biso  1.000000 C
   C12        1.0     0.075390      0.483650      0.000000     Biso  1.000000 C
   C13        1.0     0.408260      0.483650      0.000000     Biso  1.000000 C
   C14        1.0     0.591740      0.516350      0.000000     Biso  1.000000 C
   C15        1.0     0.075390      0.591740      0.000000     Biso  1.000000 C
   C16        1.0     0.924610      0.408260      0.000000     Biso  1.000000 C
   C17        1.0     0.516350      0.924610      0.000000     Biso  1.000000 C
   C18        1.0     0.483650      0.075390      0.000000     Biso  1.000000 C
   C19        1.0     0.519640      0.372810      0.000000     Biso  1.000000 C
   C20        1.0     0.480360      0.627190      0.000000     Biso  1.000000 C
   C21        1.0     0.627190      0.146830      0.000000     Biso  1.000000 C
   C22        1.0     0.372810      0.853170      0.000000     Biso  1.000000 C
   C23        1.0     0.853170      0.480360      0.000000     Biso  1.000000 C
   C24        1.0     0.146830      0.519640      0.000000     Biso  1.000000 C
   C25        1.0     0.372810      0.519640      0.000000     Biso  1.000000 C
   C26        1.0     0.627190      0.480360      0.000000     Biso  1.000000 C
   C27        1.0     0.146830      0.627190      0.000000     Biso  1.000000 C
   C28        1.0     0.853170      0.372810      0.000000     Biso  1.000000 C
   C29        1.0     0.480360      0.853170      0.000000     Biso  1.000000 C
   C30        1.0     0.519640      0.146830      0.000000     Biso  1.000000 C
   C31        1.0     0.518980      0.481020      0.000000     Biso  1.000000 C
   C32        1.0     0.481020      0.518980      0.000000     Biso  1.000000 C
   C33        1.0     0.518980      0.037960      0.000000     Biso  1.000000 C
   C34        1.0     0.481020      0.962040      0.000000     Biso  1.000000 C
   C35        1.0     0.962040      0.481020      0.000000     Biso  1.000000 C
   C36        1.0     0.037960      0.518980      0.000000     Biso  1.000000 C
   B1         1.0     0.630780      0.369220      0.000000     Biso  1.000000 B
   B2         1.0     0.369220      0.630780      0.000000     Biso  1.000000 B
   B3         1.0     0.630780      0.261560      0.000000     Biso  1.000000 B
   B4         1.0     0.369220      0.738440      0.000000     Biso  1.000000 B
   B5         1.0     0.738440      0.369220      0.000000     Biso  1.000000 B
   B6         1.0     0.261560      0.630780      0.000000     Biso  1.000000 B
   H1         1.0     0.427210      0.380940      0.000000     Biso  1.000000 H
   H2         1.0     0.572790      0.619060      0.000000     Biso  1.000000 H
   H3         1.0     0.619060      0.046270      0.000000     Biso  1.000000 H
   H4         1.0     0.380940      0.953730      0.000000     Biso  1.000000 H
   H5         1.0     0.953730      0.572790      0.000000     Biso  1.000000 H
   H6         1.0     0.046270      0.427210      0.000000     Biso  1.000000 H
   H7         1.0     0.380940      0.427210      0.000000     Biso  1.000000 H
   H8         1.0     0.619060      0.572790      0.000000     Biso  1.000000 H
   H9         1.0     0.046270      0.619060      0.000000     Biso  1.000000 H
   H10        1.0     0.953730      0.380940      0.000000     Biso  1.000000 H
   H11        1.0     0.572790      0.953730      0.000000     Biso  1.000000 H
   H12        1.0     0.427210      0.046270      0.000000     Biso  1.000000 H
   H13        1.0     0.490790      0.316840      0.000000     Biso  1.000000 H
   H14        1.0     0.509210      0.683160      0.000000     Biso  1.000000 H
   H15        1.0     0.683160      0.173950      0.000000     Biso  1.000000 H
   H16        1.0     0.316840      0.826050      0.000000     Biso  1.000000 H
   H17        1.0     0.826050      0.509210      0.000000     Biso  1.000000 H
   H18        1.0     0.173950      0.490790      0.000000     Biso  1.000000 H
   H19        1.0     0.316840      0.490790      0.000000     Biso  1.000000 H
   H20        1.0     0.683160      0.509210      0.000000     Biso  1.000000 H
   H21        1.0     0.173950      0.683160      0.000000     Biso  1.000000 H
   H22        1.0     0.826050      0.316840      0.000000     Biso  1.000000 H
   H23        1.0     0.509210      0.826050      0.000000     Biso  1.000000 H
   H24        1.0     0.490790      0.173950      0.000000     Biso  1.000000 H
